SUMMARY OF JOB INFORMATION
  STEP      INC     ATT  ITRS     TOT TIME     STEP TIME      INC TIME
    81          1     1     1  0.810000E+02  0.100000E+01  0.100000E+01
