SUMMARY OF JOB INFORMATION
  STEP      INC     ATT  ITRS     TOT TIME     STEP TIME      INC TIME
   448          1     1     1  0.448000E+03  0.100000E+01  0.100000E+01
