SUMMARY OF JOB INFORMATION
  STEP      INC     ATT  ITRS     TOT TIME     STEP TIME      INC TIME
   423          1     1     1  0.423000E+03  0.100000E+01  0.100000E+01
