SUMMARY OF JOB INFORMATION
  STEP      INC     ATT  ITRS     TOT TIME     STEP TIME      INC TIME
    32          1     1     1  0.320000E+02  0.100000E+01  0.100000E+01
