SUMMARY OF JOB INFORMATION
  STEP      INC     ATT  ITRS     TOT TIME     STEP TIME      INC TIME
   230          1     1     1  0.230000E+03  0.100000E+01  0.100000E+01
